
<net version="0.27" xmlns:xsi="http://www.w3.org/2001/XMLSchema-instance" xsi:noNamespaceSchemaLocation="http://sumo.dlr.de/xsd/net_file.xsd">

    <location netOffset="250.00,0.00" convBoundary="0.00,-75.09,523.17,60.33" origBoundary="-250.00,0.00,251.00,0.00" projParameter="!"/>

    <edge id=":2_0" function="internal">
        <lane id=":2_0_0" index="0" speed="13.89" length="6.64" shape="286.51,11.65 284.62,11.88 283.20,12.57 282.25,13.71 281.78,15.32"/>
    </edge>
    <edge id=":2_1" function="internal">
        <lane id=":2_1_0" index="0" speed="13.89" length="10.86" shape="286.51,11.65 275.63,11.58"/>
        <lane id=":2_1_1" index="1" speed="13.89" length="10.86" shape="286.51,8.35 275.67,8.28"/>
    </edge>
    <edge id=":2_3" function="internal">
        <lane id=":2_3_0" index="0" speed="13.89" length="7.97" shape="286.51,5.05 283.67,4.23 281.66,1.79 281.15,0.01"/>
    </edge>
    <edge id=":2_14" function="internal">
        <lane id=":2_14_0" index="0" speed="13.89" length="8.11" shape="281.15,0.01 280.48,-2.29 280.12,-7.99"/>
    </edge>
    <edge id=":2_4" function="internal">
        <lane id=":2_4_0" index="0" speed="13.90" length="5.01" shape="283.42,-7.96 283.61,-6.60 284.18,-5.63 285.15,-5.04 286.51,-4.85"/>
    </edge>
    <edge id=":2_5" function="internal">
        <lane id=":2_5_0" index="0" speed="13.89" length="23.35" shape="283.42,-7.96 283.24,-2.91 282.83,3.69 282.30,10.29 281.78,15.32"/>
    </edge>
    <edge id=":2_6" function="internal">
        <lane id=":2_6_0" index="0" speed="13.89" length="10.32" shape="283.42,-7.96 282.90,-2.27 281.44,1.79 281.23,1.99"/>
    </edge>
    <edge id=":2_15" function="internal">
        <lane id=":2_15_0" index="0" speed="13.89" length="6.53" shape="281.23,1.99 279.04,4.20 275.71,4.98"/>
    </edge>
    <edge id=":2_7" function="internal">
        <lane id=":2_7_0" index="0" speed="13.90" length="5.98" shape="275.83,-4.92 277.70,-5.09 279.04,-5.66 279.84,-6.63 280.12,-7.99"/>
    </edge>
    <edge id=":2_8" function="internal">
        <lane id=":2_8_0" index="0" speed="13.90" length="10.70" shape="275.83,-4.92 286.51,-4.85"/>
        <lane id=":2_8_1" index="1" speed="13.90" length="10.70" shape="275.79,-1.62 286.51,-1.55"/>
    </edge>
    <edge id=":2_10" function="internal">
        <lane id=":2_10_0" index="0" speed="13.90" length="8.35" shape="275.75,1.68 279.05,2.57 281.16,5.14 281.49,6.72"/>
    </edge>
    <edge id=":2_16" function="internal">
        <lane id=":2_16_0" index="0" speed="13.90" length="8.67" shape="281.49,6.72 282.06,9.39 281.78,15.32"/>
    </edge>
    <edge id=":2_11" function="internal">
        <lane id=":2_11_0" index="0" speed="13.89" length="5.15" shape="278.51,14.89 278.49,13.46 278.00,12.43 277.05,11.80 275.63,11.58"/>
    </edge>
    <edge id=":2_12" function="internal">
        <lane id=":2_12_0" index="0" speed="13.89" length="22.95" shape="278.51,14.89 279.03,9.93 279.54,3.46 279.94,-3.01 280.12,-7.99"/>
    </edge>
    <edge id=":2_13" function="internal">
        <lane id=":2_13_0" index="0" speed="13.90" length="9.51" shape="278.51,14.89 279.65,9.14 281.06,5.77"/>
    </edge>
    <edge id=":2_17" function="internal">
        <lane id=":2_17_0" index="0" speed="13.90" length="7.14" shape="281.06,5.77 281.36,5.04 283.65,2.57 286.51,1.75"/>
    </edge>

    <edge id="1_2" from="1" to="2" priority="-1" length="300.00">
        <lane id="1_2_0" index="0" speed="13.90" length="300.00" shape="0.10,-8.25 275.83,-4.92"/>
        <lane id="1_2_1" index="1" speed="13.90" length="300.00" shape="0.06,-4.95 275.79,-1.62"/>
        <lane id="1_2_2" index="2" speed="13.90" length="300.00" shape="0.02,-1.65 275.75,1.68"/>
    </edge>
    <edge id="2_1" from="2" to="1" priority="1" length="300.00">
        <lane id="2_1_0" index="0" speed="13.89" length="300.00" shape="275.63,11.58 -0.10,8.25"/>
        <lane id="2_1_1" index="1" speed="13.89" length="300.00" shape="275.67,8.28 -0.06,4.95"/>
        <lane id="2_1_2" index="2" speed="13.89" length="300.00" shape="275.71,4.98 -0.02,1.65"/>
    </edge>
    <edge id="2_3" from="2" to="3" priority="-1" length="300.00">
        <lane id="2_3_0" index="0" speed="13.90" length="300.00" shape="286.51,-4.85 523.17,-4.85"/>
        <lane id="2_3_1" index="1" speed="13.90" length="300.00" shape="286.51,-1.55 523.17,-1.55"/>
        <lane id="2_3_2" index="2" speed="13.90" length="300.00" shape="286.51,1.75 523.17,1.75"/>
    </edge>
    <edge id="2_4" from="2" to="4" priority="1" length="100.00">
        <lane id="2_4_0" index="0" speed="13.89" length="100.00" shape="281.78,15.32 275.88,60.54"/>
    </edge>
    <edge id="2_5" from="2" to="5" priority="1" length="100.00">
        <lane id="2_5_0" index="0" speed="13.89" length="100.00" shape="280.12,-7.99 280.73,-75.10"/>
    </edge>
    <edge id="3_2" from="3" to="2" priority="1" length="300.00">
        <lane id="3_2_0" index="0" speed="13.89" length="300.00" shape="523.17,11.65 286.51,11.65"/>
        <lane id="3_2_1" index="1" speed="13.89" length="300.00" shape="523.17,8.35 286.51,8.35"/>
        <lane id="3_2_2" index="2" speed="13.89" length="300.00" shape="523.17,5.05 286.51,5.05"/>
    </edge>
    <edge id="4_2" from="4" to="2" priority="1" length="100.00">
        <lane id="4_2_0" index="0" speed="13.89" length="100.00" shape="272.60,60.12 278.51,14.89"/>
    </edge>
    <edge id="5_2" from="5" to="2" priority="1" length="100.00">
        <lane id="5_2_0" index="0" speed="13.89" length="100.00" shape="284.03,-75.08 283.42,-7.96"/>
    </edge>

    <tlLogic id="2" type="static" programID="0" offset="0">
        <phase duration="31" state="GGGgrrrGGGgrrr"/>
        <phase duration="4" state="yyygrrryyygrrr"/>
        <phase duration="6" state="rrrGrrrrrrGrrr"/>
        <phase duration="4" state="rrryrrrrrryrrr"/>
        <phase duration="31" state="rrrrGGgrrrrGGg"/>
        <phase duration="4" state="rrrryygrrrryyg"/>
        <phase duration="6" state="rrrrrrGrrrrrrG"/>
        <phase duration="4" state="rrrrrryrrrrrry"/>
    </tlLogic>

    <junction id="1" type="unregulated" x="0.00" y="0.00" incLanes="2_1_0 2_1_1 2_1_2" intLanes="" shape="0.00,-0.05 -0.12,9.85 -0.00,0.05"/>
    <junction id="2" type="traffic_light" x="281.67" y="3.40" incLanes="3_2_0 3_2_1 3_2_2 5_2_0 1_2_0 1_2_1 1_2_2 4_2_0" intLanes=":2_0_0 :2_1_0 :2_1_1 :2_14_0 :2_4_0 :2_5_0 :2_15_0 :2_7_0 :2_8_0 :2_8_1 :2_16_0 :2_11_0 :2_12_0 :2_17_0" shape="286.51,13.25 286.51,-6.45 285.02,-7.95 278.52,-8.01 275.85,-6.52 275.61,13.18 276.92,14.68 283.37,15.52">
        <request index="0" response="00000000000000" foes="00010000100000" cont="0"/>
        <request index="1" response="00000000000000" foes="11110001100000" cont="0"/>
        <request index="2" response="00000000000000" foes="11110001100000" cont="0"/>
        <request index="3" response="00001110000000" foes="11001111100000" cont="1"/>
        <request index="4" response="00001100000000" foes="10001100000000" cont="0"/>
        <request index="5" response="00011100001111" foes="10011100001111" cont="0"/>
        <request index="6" response="01111100001110" foes="01111100001110" cont="1"/>
        <request index="7" response="00000000000000" foes="01000000001000" cont="0"/>
        <request index="8" response="00000000000000" foes="11000001111000" cont="0"/>
        <request index="9" response="00000000000000" foes="11000001111000" cont="0"/>
        <request index="10" response="00000000000111" foes="11000001100111" cont="1"/>
        <request index="11" response="00000000000110" foes="00000001000110" cont="0"/>
        <request index="12" response="00011110001110" foes="00011111001110" cont="0"/>
        <request index="13" response="00011100111110" foes="00011100111110" cont="1"/>
    </junction>
    <junction id="3" type="unregulated" x="523.17" y="3.40" incLanes="2_3_0 2_3_1 2_3_2" intLanes="" shape="523.17,3.45 523.17,-6.45 523.17,3.35"/>
    <junction id="4" type="dead_end" x="274.24" y="60.33" incLanes="2_4_0" intLanes="" shape="274.19,60.32 277.46,60.75 274.29,60.34"/>
    <junction id="5" type="dead_end" x="282.38" y="-75.09" incLanes="2_5_0" intLanes="" shape="282.43,-75.09 279.13,-75.12 282.33,-75.09"/>

    <junction id=":2_14_0" type="internal" x="281.15" y="0.01" incLanes=":2_3_0 1_2_0 1_2_1" intLanes=":2_5_0 :2_6_0 :2_7_0 :2_8_0 :2_8_1 :2_12_0 :2_13_0"/>
    <junction id=":2_15_0" type="internal" x="281.23" y="1.99" incLanes=":2_6_0 4_2_0" intLanes=":2_1_0 :2_1_1 :2_3_0 :2_8_0 :2_8_1 :2_10_0 :2_11_0 :2_12_0"/>
    <junction id=":2_16_0" type="internal" x="281.49" y="6.72" incLanes=":2_10_0 3_2_0 3_2_1" intLanes=":2_0_0 :2_1_0 :2_1_1 :2_5_0 :2_6_0 :2_12_0 :2_13_0"/>
    <junction id=":2_17_0" type="internal" x="281.06" y="5.77" incLanes=":2_13_0 5_2_0" intLanes=":2_1_0 :2_1_1 :2_3_0 :2_4_0 :2_5_0 :2_8_0 :2_8_1 :2_10_0"/>

    <connection from="1_2" to="2_5" fromLane="0" toLane="0" via=":2_7_0" tl="2" linkIndex="7" dir="r" state="o"/>
    <connection from="1_2" to="2_3" fromLane="0" toLane="0" via=":2_8_0" tl="2" linkIndex="8" dir="s" state="o"/>
    <connection from="1_2" to="2_3" fromLane="1" toLane="1" via=":2_8_1" tl="2" linkIndex="9" dir="s" state="o"/>
    <connection from="1_2" to="2_4" fromLane="2" toLane="0" via=":2_10_0" tl="2" linkIndex="10" dir="l" state="o"/>
    <connection from="3_2" to="2_4" fromLane="0" toLane="0" via=":2_0_0" tl="2" linkIndex="0" dir="r" state="o"/>
    <connection from="3_2" to="2_1" fromLane="0" toLane="0" via=":2_1_0" tl="2" linkIndex="1" dir="s" state="o"/>
    <connection from="3_2" to="2_1" fromLane="1" toLane="1" via=":2_1_1" tl="2" linkIndex="2" dir="s" state="o"/>
    <connection from="3_2" to="2_5" fromLane="2" toLane="0" via=":2_3_0" tl="2" linkIndex="3" dir="l" state="o"/>
    <connection from="4_2" to="2_1" fromLane="0" toLane="0" via=":2_11_0" tl="2" linkIndex="11" dir="r" state="o"/>
    <connection from="4_2" to="2_5" fromLane="0" toLane="0" via=":2_12_0" tl="2" linkIndex="12" dir="s" state="o"/>
    <connection from="4_2" to="2_3" fromLane="0" toLane="2" via=":2_13_0" tl="2" linkIndex="13" dir="l" state="o"/>
    <connection from="5_2" to="2_3" fromLane="0" toLane="0" via=":2_4_0" tl="2" linkIndex="4" dir="r" state="o"/>
    <connection from="5_2" to="2_4" fromLane="0" toLane="0" via=":2_5_0" tl="2" linkIndex="5" dir="s" state="o"/>
    <connection from="5_2" to="2_1" fromLane="0" toLane="2" via=":2_6_0" tl="2" linkIndex="6" dir="l" state="o"/>

    <connection from=":2_0" to="2_4" fromLane="0" toLane="0" dir="s" state="M"/>
    <connection from=":2_1" to="2_1" fromLane="0" toLane="0" dir="s" state="M"/>
    <connection from=":2_1" to="2_1" fromLane="1" toLane="1" dir="s" state="M"/>
    <connection from=":2_3" to="2_5" fromLane="0" toLane="0" via=":2_14_0" dir="s" state="m"/>
    <connection from=":2_14" to="2_5" fromLane="0" toLane="0" dir="s" state="M"/>
    <connection from=":2_4" to="2_3" fromLane="0" toLane="0" dir="s" state="M"/>
    <connection from=":2_5" to="2_4" fromLane="0" toLane="0" dir="s" state="M"/>
    <connection from=":2_6" to="2_1" fromLane="0" toLane="2" via=":2_15_0" dir="s" state="m"/>
    <connection from=":2_15" to="2_1" fromLane="0" toLane="2" dir="s" state="M"/>
    <connection from=":2_7" to="2_5" fromLane="0" toLane="0" dir="s" state="M"/>
    <connection from=":2_8" to="2_3" fromLane="0" toLane="0" dir="s" state="M"/>
    <connection from=":2_8" to="2_3" fromLane="1" toLane="1" dir="s" state="M"/>
    <connection from=":2_10" to="2_4" fromLane="0" toLane="0" via=":2_16_0" dir="s" state="m"/>
    <connection from=":2_16" to="2_4" fromLane="0" toLane="0" dir="s" state="M"/>
    <connection from=":2_11" to="2_1" fromLane="0" toLane="0" dir="s" state="M"/>
    <connection from=":2_12" to="2_5" fromLane="0" toLane="0" dir="s" state="M"/>
    <connection from=":2_13" to="2_3" fromLane="0" toLane="2" via=":2_17_0" dir="s" state="m"/>
    <connection from=":2_17" to="2_3" fromLane="0" toLane="2" dir="s" state="M"/>

</net>
