
<net version="0.27" xmlns:xsi="http://www.w3.org/2001/XMLSchema-instance" xsi:noNamespaceSchemaLocation="http://sumo.dlr.de/xsd/net_file.xsd">

    <location netOffset="0.00,0.00" convBoundary="-184.24,-50.04,208.85,142.63" origBoundary="-10000000000.00,-10000000000.00,10000000000.00,10000000000.00" projParameter="!"/>

    <edge id=":1_0" function="internal">
        <lane id=":1_0_0" index="0" speed="13.89" length="5.15" shape="-1.59,65.03 -1.80,63.60 -2.39,62.58 -3.37,61.97 -4.72,61.77"/>
    </edge>
    <edge id=":1_1" function="internal">
        <lane id=":1_1_0" index="0" speed="13.89" length="29.50" shape="-1.59,65.03 -1.70,35.48"/>
        <lane id=":1_1_1" index="1" speed="13.89" length="29.50" shape="1.71,65.00 1.60,35.49"/>
        <lane id=":1_1_2" index="2" speed="13.89" length="29.50" shape="5.01,64.96 4.90,35.50"/>
    </edge>
    <edge id=":1_4" function="internal">
        <lane id=":1_4_0" index="0" speed="13.89" length="23.89" shape="5.01,64.96 5.75,57.76 8.18,52.63 12.27,49.56 18.04,48.55"/>
    </edge>
    <edge id=":1_5" function="internal">
        <lane id=":1_5_0" index="0" speed="13.89" length="5.02" shape="17.99,61.75 16.63,61.94 15.66,62.52 15.09,63.49 14.90,64.86"/>
    </edge>
    <edge id=":1_6" function="internal">
        <lane id=":1_6_0" index="0" speed="13.89" length="22.76" shape="17.99,61.75 -4.72,61.77"/>
        <lane id=":1_6_1" index="1" speed="13.89" length="22.76" shape="18.00,58.45 -4.74,58.47"/>
        <lane id=":1_6_2" index="2" speed="13.89" length="22.76" shape="18.02,55.15 -4.75,55.17"/>
        <lane id=":1_6_3" index="3" speed="13.89" length="22.76" shape="18.03,51.85 -4.77,51.87"/>
    </edge>
    <edge id=":1_10" function="internal">
        <lane id=":1_10_0" index="0" speed="13.89" length="23.83" shape="18.03,51.85 12.26,50.81 8.15,47.74 5.70,42.64 4.90,35.50"/>
    </edge>
    <edge id=":1_11" function="internal">
        <lane id=":1_11_0" index="0" speed="13.89" length="5.15" shape="14.80,35.54 15.00,36.89 15.61,37.86 16.63,38.45 18.07,38.65"/>
    </edge>
    <edge id=":1_12" function="internal">
        <lane id=":1_12_0" index="0" speed="13.89" length="29.37" shape="14.80,35.54 14.90,64.86"/>
        <lane id=":1_12_1" index="1" speed="13.89" length="29.37" shape="11.50,35.53 11.60,64.89"/>
        <lane id=":1_12_2" index="2" speed="13.89" length="29.37" shape="8.20,35.52 8.31,64.93"/>
    </edge>
    <edge id=":1_15" function="internal">
        <lane id=":1_15_0" index="0" speed="13.89" length="23.66" shape="8.20,35.52 7.37,42.64 4.93,47.75 0.88,50.82 -4.77,51.87"/>
    </edge>
    <edge id=":1_16" function="internal">
        <lane id=":1_16_0" index="0" speed="13.89" length="5.09" shape="-4.84,38.67 -3.47,38.46 -2.49,37.86 -1.90,36.87 -1.70,35.48"/>
    </edge>
    <edge id=":1_17" function="internal">
        <lane id=":1_17_0" index="0" speed="13.89" length="22.86" shape="-4.84,38.67 18.07,38.65"/>
        <lane id=":1_17_1" index="1" speed="13.89" length="22.86" shape="-4.82,41.97 18.06,41.95"/>
        <lane id=":1_17_2" index="2" speed="13.89" length="22.86" shape="-4.80,45.27 18.05,45.25"/>
        <lane id=":1_17_3" index="3" speed="13.89" length="22.86" shape="-4.79,48.57 18.04,48.55"/>
    </edge>
    <edge id=":1_21" function="internal">
        <lane id=":1_21_0" index="0" speed="13.89" length="23.77" shape="-4.79,48.57 0.88,49.57 4.95,52.62 7.42,57.75 8.31,64.93"/>
    </edge>

    <edge id="0_1" from="0" to="1" priority="1">
        <lane id="0_1_0" index="0" speed="13.89" length="179.46" shape="-184.30,39.58 -4.84,38.67"/>
        <lane id="0_1_1" index="1" speed="13.89" length="179.46" shape="-184.28,42.88 -4.82,41.97"/>
        <lane id="0_1_2" index="2" speed="13.89" length="179.46" shape="-184.27,46.18 -4.80,45.27"/>
        <lane id="0_1_3" index="3" speed="13.89" length="179.46" shape="-184.25,49.48 -4.79,48.57"/>
    </edge>
    <edge id="1_0" from="1" to="0" priority="1">
        <lane id="1_0_0" index="0" speed="13.89" length="179.46" shape="-4.72,61.77 -184.18,62.68"/>
        <lane id="1_0_1" index="1" speed="13.89" length="179.46" shape="-4.74,58.47 -184.20,59.38"/>
        <lane id="1_0_2" index="2" speed="13.89" length="179.46" shape="-4.75,55.17 -184.21,56.08"/>
        <lane id="1_0_3" index="3" speed="13.89" length="179.46" shape="-4.77,51.87 -184.23,52.78"/>
    </edge>
    <edge id="1_2" from="1" to="2" priority="1">
        <lane id="1_2_0" index="0" speed="13.89" length="77.69" shape="14.90,64.86 15.72,142.54"/>
        <lane id="1_2_1" index="1" speed="13.89" length="77.69" shape="11.60,64.89 12.42,142.58"/>
        <lane id="1_2_2" index="2" speed="13.89" length="77.69" shape="8.31,64.93 9.12,142.61"/>
    </edge>
    <edge id="1_3" from="1" to="3" priority="1">
        <lane id="1_3_0" index="0" speed="13.89" length="190.82" shape="18.07,38.65 208.89,39.26"/>
        <lane id="1_3_1" index="1" speed="13.89" length="190.82" shape="18.06,41.95 208.88,42.56"/>
        <lane id="1_3_2" index="2" speed="13.89" length="190.82" shape="18.05,45.25 208.87,45.86"/>
        <lane id="1_3_3" index="3" speed="13.89" length="190.82" shape="18.04,48.55 208.86,49.16"/>
    </edge>
    <edge id="1_4" from="1" to="4" priority="1">
        <lane id="1_4_0" index="0" speed="13.89" length="85.55" shape="-1.70,35.48 -1.43,-50.07"/>
        <lane id="1_4_1" index="1" speed="13.89" length="85.55" shape="1.60,35.49 1.87,-50.06"/>
        <lane id="1_4_2" index="2" speed="13.89" length="85.55" shape="4.90,35.50 5.17,-50.05"/>
    </edge>
    <edge id="2_1" from="2" to="1" priority="1">
        <lane id="2_1_0" index="0" speed="13.89" length="77.69" shape="-0.78,142.72 -1.59,65.03"/>
        <lane id="2_1_1" index="1" speed="13.89" length="77.69" shape="2.52,142.68 1.71,65.00"/>
        <lane id="2_1_2" index="2" speed="13.89" length="77.69" shape="5.82,142.65 5.01,64.96"/>
    </edge>
    <edge id="3_1" from="3" to="1" priority="1">
        <lane id="3_1_0" index="0" speed="13.89" length="190.82" shape="208.81,62.36 17.99,61.75"/>
        <lane id="3_1_1" index="1" speed="13.89" length="190.82" shape="208.82,59.06 18.00,58.45"/>
        <lane id="3_1_2" index="2" speed="13.89" length="190.82" shape="208.83,55.76 18.02,55.15"/>
        <lane id="3_1_3" index="3" speed="13.89" length="190.82" shape="208.84,52.46 18.03,51.85"/>
    </edge>
    <edge id="4_1" from="4" to="1" priority="1">
        <lane id="4_1_0" index="0" speed="13.89" length="85.55" shape="15.07,-50.01 14.80,35.54"/>
        <lane id="4_1_1" index="1" speed="13.89" length="85.55" shape="11.77,-50.02 11.50,35.53"/>
        <lane id="4_1_2" index="2" speed="13.89" length="85.55" shape="8.47,-50.03 8.20,35.52"/>
    </edge>

    <tlLogic id="gneJ1" type="static" programID="0" offset="0">
        <phase duration="41" state="rrrrrrrrrrrrrrrrGGGGGG"/>
        <phase duration="4" state="rrrrrrrrrrrrrrrryyyyyy"/>
        <phase duration="4" state="rrrrrrrrrrrrrrrrrrrrrr"/>
        <phase duration="41" state="rrrrrrrrrrrGGGGGrrrrrr"/>
        <phase duration="4" state="rrrrrrrrrrryyyyyrrrrrr"/>
        <phase duration="41" state="rrrrrGGGGGGrrrrrrrrrrr"/>
        <phase duration="41" state="GGGGGrrrrrrrrrrrrrrrrr"/>
    </tlLogic>

    <junction id="0" type="unregulated" x="-184.24" y="51.13" incLanes="1_0_0 1_0_1 1_0_2 1_0_3" intLanes="" shape="-184.24,51.08 -184.17,64.28 -184.24,51.18"/>
    <junction id="1" type="traffic_light" x="6.50" y="50.16" incLanes="2_1_0 2_1_1 2_1_2 3_1_0 3_1_1 3_1_2 3_1_3 4_1_0 4_1_1 4_1_2 0_1_0 0_1_1 0_1_2 0_1_3" intLanes=":1_0_0 :1_1_0 :1_1_1 :1_1_2 :1_4_0 :1_5_0 :1_6_0 :1_6_1 :1_6_2 :1_6_3 :1_10_0 :1_11_0 :1_12_0 :1_12_1 :1_12_2 :1_15_0 :1_16_0 :1_17_0 :1_17_1 :1_17_2 :1_17_3 :1_21_0" shape="-3.19,65.05 16.50,64.84 17.99,63.35 18.07,37.05 16.40,35.54 -3.30,35.48 -4.85,37.07 -4.71,63.37">
        <request index="0" response="0000000000001111000000" foes="0000001000001111000000" cont="0"/>
        <request index="1" response="1111110000011111000000" foes="1111111000011111000000" cont="0"/>
        <request index="2" response="1111110000011111000000" foes="1111111000011111000000" cont="0"/>
        <request index="3" response="1111110000011111000000" foes="1111111000011111000000" cont="0"/>
        <request index="4" response="1111100111111111000000" foes="1111100111111111000000" cont="0"/>
        <request index="5" response="0000000000000000000000" foes="1000000111000000000000" cont="0"/>
        <request index="6" response="0000000000000000000000" foes="1000001111000000011111" cont="0"/>
        <request index="7" response="0000000000000000000000" foes="1000001111000000011111" cont="0"/>
        <request index="8" response="0000000000000000000000" foes="1000001111000000011111" cont="0"/>
        <request index="9" response="0000000000000000000000" foes="1000001111000000011111" cont="0"/>
        <request index="10" response="0111110000000000000000" foes="0111111111000000011110" cont="0"/>
        <request index="11" response="0111100000000000000000" foes="0111100000000000010000" cont="0"/>
        <request index="12" response="1111100000011111100000" foes="1111100000011111110000" cont="0"/>
        <request index="13" response="1111100000011111100000" foes="1111100000011111110000" cont="0"/>
        <request index="14" response="1111100000011111100000" foes="1111100000011111110000" cont="0"/>
        <request index="15" response="1111100000011111001111" foes="1111100000011111001111" cont="0"/>
        <request index="16" response="0000000000000000000000" foes="0000000000010000001110" cont="0"/>
        <request index="17" response="0000000000000000000000" foes="0000001111110000011110" cont="0"/>
        <request index="18" response="0000000000000000000000" foes="0000001111110000011110" cont="0"/>
        <request index="19" response="0000000000000000000000" foes="0000001111110000011110" cont="0"/>
        <request index="20" response="0000000000000000000000" foes="0000001111110000011110" cont="0"/>
        <request index="21" response="0000000000001111100000" foes="0000001111001111111110" cont="0"/>
    </junction>
    <junction id="2" type="unregulated" x="7.47" y="142.63" incLanes="1_2_0 1_2_1 1_2_2" intLanes="" shape="7.42,142.63 17.32,142.53 7.52,142.63"/>
    <junction id="3" type="unregulated" x="208.85" y="50.81" incLanes="1_3_0 1_3_1 1_3_2 1_3_3" intLanes="" shape="208.85,50.86 208.89,37.66 208.85,50.76"/>
    <junction id="4" type="unregulated" x="6.82" y="-50.04" incLanes="1_4_0 1_4_1 1_4_2" intLanes="" shape="6.87,-50.04 -3.03,-50.07 6.77,-50.04"/>

    <connection from="0_1" to="1_4" fromLane="0" toLane="0" via=":1_16_0" tl="gneJ1" linkIndex="16" dir="r" state="o"/>
    <connection from="0_1" to="1_3" fromLane="0" toLane="0" via=":1_17_0" tl="gneJ1" linkIndex="17" dir="s" state="o"/>
    <connection from="0_1" to="1_3" fromLane="1" toLane="1" via=":1_17_1" tl="gneJ1" linkIndex="18" dir="s" state="o"/>
    <connection from="0_1" to="1_3" fromLane="2" toLane="2" via=":1_17_2" tl="gneJ1" linkIndex="19" dir="s" state="o"/>
    <connection from="0_1" to="1_3" fromLane="3" toLane="3" via=":1_17_3" tl="gneJ1" linkIndex="20" dir="s" state="o"/>
    <connection from="0_1" to="1_2" fromLane="3" toLane="2" via=":1_21_0" tl="gneJ1" linkIndex="21" dir="l" state="o"/>
    <connection from="2_1" to="1_0" fromLane="0" toLane="0" via=":1_0_0" tl="gneJ1" linkIndex="0" dir="r" state="o"/>
    <connection from="2_1" to="1_4" fromLane="0" toLane="0" via=":1_1_0" tl="gneJ1" linkIndex="1" dir="s" state="o"/>
    <connection from="2_1" to="1_4" fromLane="1" toLane="1" via=":1_1_1" tl="gneJ1" linkIndex="2" dir="s" state="o"/>
    <connection from="2_1" to="1_4" fromLane="2" toLane="2" via=":1_1_2" tl="gneJ1" linkIndex="3" dir="s" state="o"/>
    <connection from="2_1" to="1_3" fromLane="2" toLane="3" via=":1_4_0" tl="gneJ1" linkIndex="4" dir="l" state="o"/>
    <connection from="3_1" to="1_2" fromLane="0" toLane="0" via=":1_5_0" tl="gneJ1" linkIndex="5" dir="r" state="o"/>
    <connection from="3_1" to="1_0" fromLane="0" toLane="0" via=":1_6_0" tl="gneJ1" linkIndex="6" dir="s" state="o"/>
    <connection from="3_1" to="1_0" fromLane="1" toLane="1" via=":1_6_1" tl="gneJ1" linkIndex="7" dir="s" state="o"/>
    <connection from="3_1" to="1_0" fromLane="2" toLane="2" via=":1_6_2" tl="gneJ1" linkIndex="8" dir="s" state="o"/>
    <connection from="3_1" to="1_0" fromLane="3" toLane="3" via=":1_6_3" tl="gneJ1" linkIndex="9" dir="s" state="o"/>
    <connection from="3_1" to="1_4" fromLane="3" toLane="2" via=":1_10_0" tl="gneJ1" linkIndex="10" dir="l" state="o"/>
    <connection from="4_1" to="1_3" fromLane="0" toLane="0" via=":1_11_0" tl="gneJ1" linkIndex="11" dir="r" state="o"/>
    <connection from="4_1" to="1_2" fromLane="0" toLane="0" via=":1_12_0" tl="gneJ1" linkIndex="12" dir="s" state="o"/>
    <connection from="4_1" to="1_2" fromLane="1" toLane="1" via=":1_12_1" tl="gneJ1" linkIndex="13" dir="s" state="o"/>
    <connection from="4_1" to="1_2" fromLane="2" toLane="2" via=":1_12_2" tl="gneJ1" linkIndex="14" dir="s" state="o"/>
    <connection from="4_1" to="1_0" fromLane="2" toLane="3" via=":1_15_0" tl="gneJ1" linkIndex="15" dir="l" state="o"/>

    <connection from=":1_0" to="1_0" fromLane="0" toLane="0" dir="s" state="M"/>
    <connection from=":1_1" to="1_4" fromLane="0" toLane="0" dir="s" state="M"/>
    <connection from=":1_1" to="1_4" fromLane="1" toLane="1" dir="s" state="M"/>
    <connection from=":1_1" to="1_4" fromLane="2" toLane="2" dir="s" state="M"/>
    <connection from=":1_4" to="1_3" fromLane="0" toLane="3" dir="s" state="M"/>
    <connection from=":1_5" to="1_2" fromLane="0" toLane="0" dir="s" state="M"/>
    <connection from=":1_6" to="1_0" fromLane="0" toLane="0" dir="s" state="M"/>
    <connection from=":1_6" to="1_0" fromLane="1" toLane="1" dir="s" state="M"/>
    <connection from=":1_6" to="1_0" fromLane="2" toLane="2" dir="s" state="M"/>
    <connection from=":1_6" to="1_0" fromLane="3" toLane="3" dir="s" state="M"/>
    <connection from=":1_10" to="1_4" fromLane="0" toLane="2" dir="s" state="M"/>
    <connection from=":1_11" to="1_3" fromLane="0" toLane="0" dir="s" state="M"/>
    <connection from=":1_12" to="1_2" fromLane="0" toLane="0" dir="s" state="M"/>
    <connection from=":1_12" to="1_2" fromLane="1" toLane="1" dir="s" state="M"/>
    <connection from=":1_12" to="1_2" fromLane="2" toLane="2" dir="s" state="M"/>
    <connection from=":1_15" to="1_0" fromLane="0" toLane="3" dir="s" state="M"/>
    <connection from=":1_16" to="1_4" fromLane="0" toLane="0" dir="s" state="M"/>
    <connection from=":1_17" to="1_3" fromLane="0" toLane="0" dir="s" state="M"/>
    <connection from=":1_17" to="1_3" fromLane="1" toLane="1" dir="s" state="M"/>
    <connection from=":1_17" to="1_3" fromLane="2" toLane="2" dir="s" state="M"/>
    <connection from=":1_17" to="1_3" fromLane="3" toLane="3" dir="s" state="M"/>
    <connection from=":1_21" to="1_2" fromLane="0" toLane="2" dir="s" state="M"/>

</net>
